<?xml version="1.0" encoding="UTF-8"?>
<routes>

   <vType id="CarA" maxSpeed="33" carFollowModel="IDM" tau="1.6" length="5" accel="1.4" decel="2" minGap="2" speedDev="0.0" sigma="0.0" speedFactor="1.0"/>
   <vType id="CarB" maxSpeed="33" carFollowModel="IDM" tau="1.6" length="5" accel="3" decel="3" minGap="2" speedDev="0.0" sigma="0" speedFactor="1.0"/>
   <vType id="CarC" maxSpeed="33" carFollowModel="CACC" tau="1.6" length="5" accel="1" decel="2.8" minGap="2" speedDev="0.0" sigma="0" speedFactor="1.0"/>
   <route id="route0" edges="L4" />
   <vehicle id="a" type="CarA" route="route0" depart="0" color="1,0,0" departLane="best" departSpeed="max"/>
   <flow id="b" color="0,1,0"  begin="0" end= "10" number='8' type="CarB" departLane="best" departSpeed="max" departPos="last">
     <route edges="L4"/>
    </flow>
    
    <flow id="c" color="0,1,0"  begin="10" end= "20" number='8' type="CarB" departLane="best" departSpeed="max" departPos="last">
     <route edges="L4"/>
    </flow>
    
</routes>